12
0 1 
 N    3.135536152406   -0.128941565504    0.000328564754
 H    3.582779942406    0.777631634496    0.000715374754
 C    3.991583922406   -1.243559355504   -0.001171315246
 O    5.201035952406   -1.091854935504   -0.001920515246
 C    3.277365492406   -2.505732895504   -0.001675715246
 H    3.843950042406   -3.420763645504   -0.002814345246
 C    1.927196522406   -2.509550765504   -0.000715615246
 H    1.350233282406   -3.422515535504   -0.001034295246
 N    1.189205112406   -1.358669925504    0.000734794754
 H    0.162868852406   -1.380112725504    0.001411864754
 C    1.761976042406   -0.114004885504    0.001285444754
 O    1.111655162406    0.927213424496    0.002521834754
