12
0 1 
 C   -0.500898682221   -0.077192551392    1.881108037519
 H    0.502419277779    0.335175148608    1.804203907519
 H   -0.444805282221   -1.100963711392    2.245304997519
 H   -1.074232912221    0.496945018608    2.604404007519
 C   -1.242827932221   -0.070499601392    0.563045357519
 O   -2.423160552221   -0.397457641392    0.480317177519
 N   -0.514278952221    0.316487608608   -0.508690272481
 H    0.471786307779    0.531835988608   -0.406355002481
 C   -1.120123682221    0.330045638608   -1.820597572481
 H   -2.037253352221    0.915019298608   -1.808989552481
 H   -0.421129562221    0.773389388608   -2.524645852481
 H   -1.375307662221   -0.675400861392   -2.154714592481
