12
0 1 
 N    2.121003403358   -0.604791692688   -0.130133120805
 H    2.514208513358   -1.520181922688   -0.301852540805
 C    3.042531313358    0.443323927312    0.051319989195
 O    4.239677693358    0.225028117312   -0.001559970805
 C    2.403465243358    1.722786307312    0.291927139195
 H    3.023000003358    2.589711187312    0.443404419195
 C    1.056381043358    1.802776457312    0.321308379195
 H    0.533540853358    2.731223457312    0.496606589195
 N    0.252650293358    0.712094477312    0.130902349195
 H   -0.771401536642    0.782042167312    0.154692609195
 C    0.752582773358   -0.538128312688   -0.103269870805
 O    0.040550323358   -1.527633202688   -0.276740050805
