12
0 1 
 N   -0.279001876070    0.713140208379    1.194030128066
 H   -0.652309266070    1.614901638379    0.931137158066
 C    1.113144803930    0.640153308379    1.326043468066
 O    1.804055123930    1.634576998379    1.181209408066
 C    1.592044923930   -0.693924401621    1.644153668066
 H    2.649097013930   -0.846140341621    1.778274808066
 C    0.712335693930   -1.708305581621    1.770370198066
 H    1.018263213930   -2.716726191621    2.006894558066
 N   -0.632910196070   -1.523273661621    1.600278058066
 H   -1.281658026070   -2.285832601621    1.699147228066
 C   -1.207358506070   -0.298472631621    1.300863438066
 O   -2.405146916070   -0.147649361621    1.158751248066
