6
0 1 
 O   -3.009178075189    0.280383770778    0.001472054258
 H   -2.037924275189    0.315219830778   -0.000599675742
 C   -3.359457535189   -1.085639509222    0.001239184258
 H   -4.444918395189   -1.149126819222    0.005009754258
 H   -2.996409995189   -1.613459339222   -0.885383175742
 H   -2.990166635189   -1.615320319222    0.884173504258
