11
0 1 
 N   -1.883429770060    0.150912320422    1.717475657292
 C   -1.268543840060    1.308580130422    1.997539847292
 H   -1.916147890060    2.161751580422    2.160051937292
 C    0.113671059940    1.449427860422    2.087710657292
 H    0.545519819940    2.413077980422    2.318926957292
 C    0.914622449940    0.332448560422    1.873496747292
 H    1.992191619940    0.402832840422    1.928331257292
 C    0.294070549940   -0.876206479578    1.579837167292
 H    0.869845059940   -1.771828359578    1.395762237292
 C   -1.096443730060   -0.914244359578    1.514387757292
 H   -1.605296650060   -1.842697739578    1.285545077292
