6
0 1 
 O    2.423156814985    0.555796291230   -0.207382713523
 H    3.144011624985    1.183095921230   -0.116967903523
 C    2.942240974985   -0.749569358770    0.026499076477
 H    2.109669474985   -1.438357048770   -0.079077493523
 H    3.708379734985   -1.018562108770   -0.700381693523
 H    3.350338024985   -0.851018558770    1.032133566477
