17
0 1 
 C   -0.000190951815    0.064310276292    2.267304604389
 C    0.000880788185   -0.075820823708    3.787037554389
 H   -0.886155241815    0.388255216292    4.220406974389
 H    0.010132288185   -1.126601073708    4.080047424389
 H    0.879541008185    0.403843736292    4.220680624389
 C   -1.239646291815   -0.617341753708    1.693406094389
 H   -1.262945511815   -0.528384623708    0.606576904389
 H   -1.251731921815   -1.678618143708    1.946419294389
 H   -2.150590011815   -0.165050493708    2.088491214389
 C    1.252414158185   -0.593230523708    1.693834264389
 H    1.273740938185   -0.504944863708    0.606863304389
 H    1.285544688185   -1.653791363708    1.947926584389
 H    2.154226388185   -0.122587213708    2.088255384389
 C   -0.014438831815    1.544102766292    1.892683324389
 H    0.863327168185    2.054689786292    2.291638454389
 H   -0.014963031815    1.670557696292    0.809031634389
 H   -0.902544781815    2.037436486292    2.290471464389
