8
0 1 
 C   -1.925513490048    0.094402335237    0.010187862229
 O   -1.221965410048    1.067720375237    0.249940532229
 O   -1.453107810048   -1.107820474763   -0.278083327771
 H   -0.459368630048   -1.075015614763   -0.263460297771
 C   -3.422232090048    0.139811585237    0.014385182229
 H   -3.759802270048    1.144725765237    0.236444202229
 H   -3.796693570048   -0.180347784763   -0.954867687771
 H   -3.801016250048   -0.557827804763    0.757684942229
