11
0 1 
 N   -0.521549738767   -1.519508876652    2.048793033974
 C   -1.454027828767   -0.558879416652    2.122644193974
 H   -2.456817078767   -0.889834216652    2.364837053974
 C   -1.192024788767    0.792189003348    1.913264813974
 H   -1.990582548767    1.516694443348    1.991535903974
 C    0.107402541233    1.181430293348    1.602996403974
 H    0.349387101233    2.220428773348    1.427125143974
 C    1.086961851233    0.198532133348    1.519634933974
 H    2.109263091233    0.445277873348    1.271197953974
 C    0.724482131233   -1.126605626652    1.752827933974
 H    1.468342891233   -1.912160256652    1.696379333974
