12
0 1 
 C    0.193517894267    1.121172858789   -1.744213086510
 H    0.838714224267    1.986576328789   -1.677016696510
 C    0.739108304267   -0.159074741211   -1.680520346510
 H    1.805826854267   -0.286922721211   -1.558010836510
 C   -0.092242465733   -1.274349501211   -1.762103436510
 H    0.331317224267   -2.268255521211   -1.710003916510
 C   -1.468705265733   -1.109896901211   -1.905067466510
 H   -2.113583125733   -1.976096541211   -1.968467346510
 C   -2.014653065733    0.171227718789   -1.966299886510
 H   -3.082910215733    0.299398308789   -2.078456976510
 C   -1.182955025733    1.286820048789   -1.888155296510
 H   -1.606028125733    2.281177358789   -1.937639996510
