12
0 1 
 C    1.333749209940    0.852943780422   -1.614649592708
 H    1.981115829940    1.705439110422   -1.458214302708
 C    1.883999339940   -0.401752499578   -1.869633892708
 H    2.958038589940   -0.523090499578   -1.913510152708
 C    1.049380819940   -1.499721759578   -2.074823752708
 H    1.475850469940   -2.472792779578   -2.278443202708
 C   -0.334113390060   -1.341735909578   -2.022832142708
 H   -0.982067200060   -2.193088839578   -2.182488922708
 C   -0.884483240060   -0.087258759578   -1.762501542708
 H   -1.957684450060    0.033679220422   -1.709553652708
 C   -0.050290080060    1.010174800422   -1.560656502708
 H   -0.477554450060    1.982432750422   -1.356677542708
