7
0 1 
 N   -1.433249929155    0.216473294252   -0.631437569340
 H   -0.604654189155   -0.368380235748   -0.681779659340
 H   -2.095077489155   -0.173186275748   -1.289674529340
 C   -1.993267369155    0.136955504252    0.715940550660
 H   -2.887346319155    0.754801634252    0.777161440660
 H   -2.257354059155   -0.870286745748    1.053446140660
 H   -1.274884089155    0.544231834252    1.425081260660
