6
0 1 
 C    0.655783119360   -0.116792963273    2.581612735180
 H    1.047243899360   -1.123911793273    2.577144475180
 H    1.370856899360    0.693271016727    2.577111145180
 C   -0.655773400640    0.116789666727    2.581621625180
 H   -1.370845350640   -0.693274853273    2.577125535180
 H   -1.047236510640    1.123908566727    2.577163425180
