15
0 1 
 C    0.801246362428   -1.016590174430   -2.630713343003
 H    0.854888162428   -1.116589544430   -3.716464653003
 H    1.492734382428   -1.738707894430   -2.198729903003
 C    1.118219282428    0.430414255570   -2.218788253003
 H    1.839474582428    0.895606505570   -2.887997743003
 H    1.556901872428    0.445286105570   -1.221366743003
 C   -0.243226877572    1.171151055570   -2.215473163003
 H   -0.256745317572    2.006324595570   -2.913126973003
 H   -0.447472217572    1.582457285570   -1.227465833003
 C   -1.297381897572    0.109273375570   -2.579141313003
 H   -1.472228497572    0.110704845570   -3.656455753003
 H   -2.255401997572    0.283502645570   -2.091291873003
 C   -0.645547647572   -1.214606894430   -2.182143703003
 H   -1.123106897572   -2.082165554430   -2.635457033003
 H   -0.684686357572   -1.339821854430   -1.098230243003
