11
0 1 
 N   -0.109189655189    0.209348800778   -0.001626065742
 C    0.587178734811    0.184913470778   -1.146345665742
 H    0.002700144811    0.208137010778   -2.057321105742
 C    1.976815804811    0.135170610778   -1.195030915742
 H    2.484168144811    0.117878570778   -2.148813645742
 C    2.687189024811    0.109457990778    0.000582104258
 H    3.767525034811    0.071693240778    0.001431404258
 C    1.974941574811    0.134479100778    1.195121964258
 H    2.480740314811    0.116654770778    2.149607654258
 C    0.585387934811    0.184228780778    1.144167874258
 H   -0.000617855189    0.206903210778    2.054286564258
