9
0 1 
 C    2.044660455964   -0.058248678832    0.079924016862
 O    1.460238695964   -1.032269108832   -0.399806953138
 N    1.400572885964    1.026494551168    0.547770566862
 H    0.380467525964    1.070932331168    0.513469256862
 H    1.918596955964    1.794455751168    0.927891216862
 C    3.551659635963   -0.033964298832    0.165149096862
 H    3.943530695964    0.865685221168    0.632333106862
 H    3.955215825964   -0.121509328832   -0.840631203138
 H    3.879438395964   -0.904539198832    0.727329436862
