11
0 1 
 N    1.196410224793   -0.001140567206   -1.711135937827
 C    0.597589864793   -1.188265357206   -1.887395287827
 H    1.237132804793   -2.059339747206   -1.821554097827
 C   -0.765659095207   -1.338465907206   -2.129681117827
 H   -1.184760875207   -2.326685667206   -2.254230247827
 C   -1.562212775207   -0.199756617206   -2.197313957827
 H   -2.625357855207   -0.275771037206   -2.379602787827
 C   -0.957967475207    1.040819772794   -2.021023947827
 H   -1.533159415207    1.954683932794   -2.052491077827
 C    0.413373464793    1.086292282794   -1.783498257827
 H    0.910349404793    2.038235382794   -1.643299067827
