3
water1,0
O 3.000000 0.500000  0.000000
H 3.758602 0.500000  0.504284
H 3.260455 0.500000 -0.872893

3
water2,0
O 3.000000 1.000000  0.000000
H 3.758602 1.000000  0.504284
H 3.260455 1.000000 -0.872893

3
water3,0
O 3.000000 1.500000  0.000000
H 3.758602 1.500000  0.504284
H 3.260455 1.500000 -0.872893
