12
0 1 
 N   -0.041474303062   -0.964884908135   -0.688854313346
 H   -0.043822703062   -1.975497378135   -0.672994833346
 C   -1.299413813062   -0.346680018135   -0.718790543346
 O   -2.317820653062   -1.017358558135   -0.728645363346
 C   -1.227419143062    1.103244651865   -0.735040903346
 H   -2.143339623062    1.666656801865   -0.777590933346
 C   -0.025794983062    1.713032201865   -0.689111673346
 H    0.079765706938    2.787672111865   -0.690934263346
 N    1.143928476938    1.005478871865   -0.630971893346
 H    2.033119666938    1.471968541865   -0.567123733346
 C    1.202585336938   -0.376636508135   -0.607041383346
 O    2.245797316938   -0.995991898135   -0.528630883346
