11 

N	-0.521549738767	-1.519508876652	2.048793033974	0.9822527616760929	0.0
C	-1.454027828767	-0.558879416652	2.122644193974	0.8673847681239397	0.0
H	-2.456817078767	-0.889834216652	2.364837053974	0.7021472399530592	0.0
C	-1.192024788767	0.792189003348	1.913264813974	0.8525562828946937	0.0
H	-1.990582548767	1.516694443348	1.991535903974	0.6787956223548105	0.0
C	0.107402541233	1.181430293348	1.602996403974	0.8496810391810097	0.0
H	0.349387101233	2.220428773348	1.427125143974	0.6696180227096145	0.0
C	1.086961851233	0.198532133348	1.519634933974	0.8524275147475033	0.0
H	2.109263091233	0.445277873348	1.271197953974	0.6785383395506391	0.0
C	0.724482131233	-1.126605626652	1.752827933974	0.8673766465256839	0.0
H	1.468342891233	-1.912160256652	1.696379333974	0.7023891011537994	0.0
