6 

C	0.666390188183	0.175637154911	-2.693939599026	0.8455503683788512	0.0
H	1.228871628183	-0.338056635089	-1.927416719026	0.6930306366564764	0.0
H	1.228025368183	0.689034504911	-3.461286319026	0.6929747480627007	0.0
C	-0.665983771817	0.174799804911	-2.694064519026	0.8455503282702218	0.0
H	-1.227931901817	-0.339672525089	-1.927573089026	0.6930906499274555	0.0
H	-1.228194461817	0.687472124911	-3.461424509026	0.6929698396392208	0.0
