11 

N	1.384275503191	-0.000217845440	-0.817040025316	0.982010104263534	0.0
C	0.682244103191	-1.140223825440	-0.856424105316	0.8672607658958817	0.0
H	1.261612913191	-2.054946595440	-0.822620155316	0.7022603567649651	0.0
C	-0.706829006809	-1.193098435440	-0.941839505316	0.8524094155107349	0.0
H	-1.211194366809	-2.148545995440	-0.973812275316	0.6787157604530513	0.0
C	-1.418720256809	0.000149064560	-0.989320665316	0.8495254004060885	0.0
H	-2.497802836809	0.000273204560	-1.057673495316	0.6693959299859579	0.0
C	-0.706507886809	1.193191014560	-0.941981785316	0.8523900548979471	0.0
H	-1.210618316809	2.148763474560	-0.974032075316	0.6787135715991801	0.0
C	0.682544983191	1.139971864560	-0.856610735316	0.8672614896145426	0.0
H	1.262154043191	2.054526534560	-0.823001285316	0.7022392388440433	0.0
