12 

C	0.835519699360	1.115164446727	-0.927737694820	0.8620298237768534	0.0
H	1.484326499360	1.980606096727	-0.929604704820	0.6912948258807471	0.0
C	1.383277489360	-0.166149693273	-0.925373694820	0.8620355319344715	0.0
H	2.457151539360	-0.295207163273	-0.926367924820	0.6913647411123175	0.0
C	0.547557179360	-1.281318803273	-0.927453374820	0.8620077761302463	0.0
H	0.972938619360	-2.275807013273	-0.929360474820	0.6913884222201713	0.0
C	-0.835520610640	-1.115164073273	-0.927739934820	0.8619997305989769	0.0
H	-1.484331670640	-1.980608883273	-0.929608914820	0.6913673046796279	0.0
C	-1.383281060640	0.166151646727	-0.925381254820	0.8620125327254223	0.0
H	-2.457153660640	0.295206576727	-0.926381934820	0.6913064613260937	0.0
C	-0.547563250640	1.281320986727	-0.927458754820	0.8619786268717916	0.0
H	-0.972940320640	2.275802996727	-0.929370274820	0.6911784608388013	0.0
