17 

C	-2.530052621815	-0.417236343708	-2.292695295611	0.8063585983815789	0.0
H	-2.559555781815	-0.982450993708	-3.224157915611	0.6838429045327061	0.0
H	-2.553706001815	-1.133525963708	-1.471343825611	0.6837328385212482	0.0
H	-3.435883301815	0.184482746292	-2.237230395611	0.6711923723697031	0.0
C	-1.275826581815	0.443973916292	-2.223976895611	0.8260737540828198	0.0
H	-1.277753591815	1.025556836292	-1.298916245611	0.6907985654954322	0.0
H	-1.280008741815	1.168894626292	-3.041159785611	0.6908209422907078	0.0
C	0.002534948185	-0.380377213708	-2.295009155611	0.8313946498233262	0.0
H	0.008159188185	-1.111074053708	-1.480170505611	0.7036781032744696	0.0
H	0.006578908185	-0.960183713708	-3.222822185611	0.70369687267981	0.0
C	1.268663718185	0.462735336292	-2.224632595611	0.8260537812939389	0.0
H	1.262350108185	1.044589276292	-1.299755275611	0.6909164633124095	0.0
H	1.261965128185	1.187396096292	-3.042036305611	0.6908288201628648	0.0
C	2.535296518185	-0.380085703708	-2.293315365611	0.8063423129890673	0.0
H	2.572770488185	-0.945377533708	-3.224453585611	0.6837742170851702	0.0
H	3.432311418185	0.234753906292	-2.238424005611	0.6711226559484591	0.0
H	2.569537958185	-1.095471043708	-1.471545645611	0.683620361543213	0.0
