12 

C	0.543131260572	1.066947231663	-1.982175277385	0.8623324880748547	0.0
H	1.146290120572	1.964467911663	-1.989633447385	0.6915213814493025	0.0
C	1.153519250572	-0.183847418337	-2.068657897385	0.8622114980165351	0.0
H	2.229922670572	-0.255911118337	-2.140520337385	0.6912679888364824	0.0
C	0.376074000572	-1.340960488337	-2.061021377385	0.8622081084526961	0.0
H	0.849567700572	-2.310666478337	-2.129639147385	0.6914130495044731	0.0
C	-1.011828339428	-1.248335358337	-1.963809347385	0.8622871368602477	0.0
H	-1.614830489428	-2.146004418337	-1.958301527385	0.6914678223178357	0.0
C	-1.622926429428	0.001961981663	-1.874759597385	0.8623069519455904	0.0
H	-2.699162409428	0.074165891663	-1.798672147385	0.6916100982061011	0.0
C	-0.845334649428	1.160128741663	-1.885427627385	0.8623889610720055	0.0
H	-1.319700049428	2.129923091663	-1.820575437385	0.6914468202774151	0.0
