12 

C	0.356013486180	0.690900443979	-2.091892706029	0.8621738437039828	0.0
H	0.786196036180	1.683246213979	-2.107025856029	0.6914537391845023	0.0
C	1.186242306180	-0.428197506021	-2.052529716029	0.8621791143132918	0.0
H	2.260571266180	-0.304373036021	-2.036241416029	0.6912902087549619	0.0
C	0.631864106180	-1.706809946021	-2.034447216029	0.8621185758715132	0.0
H	1.275972346180	-2.574964426021	-2.003369776029	0.6913158313052289	0.0
C	-0.752597763820	-1.866498516021	-2.055628566029	0.8621051358467209	0.0
H	-1.182714463820	-2.858567166021	-2.039954486029	0.6912707070194883	0.0
C	-1.582833013820	-0.747596546021	-2.094423286029	0.8621020172343893	0.0
H	-2.657062153820	-0.871472866021	-2.108776586029	0.6914065420270608	0.0
C	-1.028605293820	0.531083003979	-2.112617596029	0.8621488304561055	0.0
H	-1.672913613820	1.399278273979	-2.142671616029	0.6914970000348343	0.0
