6 

O	1.404788787707	0.221811383397	-0.395594265488	0.9518774605601448	0.0
H	1.873578097707	0.836195903397	-0.965260215488	0.6705091562249496	0.0
C	1.913622707707	0.378830323397	0.926123054512	0.798525432869944	0.0
H	1.360053627707	-0.309366106603	1.556253934512	0.6606817449107337	0.0
H	2.972618817707	0.128391423397	0.982846194512	0.6607846222596147	0.0
H	1.761183067707	1.389524373397	1.304015604512	0.660039868481863	0.0
