8 

C	-3.181320086642	-0.365724982688	-0.037847640805	0.8656403506690848	0.0
O	-2.534776616642	0.656642707312	0.148522769195	1.0246408091875967	0.0
O	-2.645783366642	-1.555824582688	-0.263397220805	0.9109637315760153	0.0
H	-1.654373616642	-1.489488462688	-0.257527580805	0.6775886300655394	0.0
C	-4.679118666642	-0.406555502688	-0.035653380805	0.7956596000439832	0.0
H	-5.074342696642	0.584140377312	0.152775139195	0.6696016624642128	0.0
H	-5.031950206642	-0.777486392688	-0.995015920805	0.6595722071827935	0.0
H	-5.020808186642	-1.100946862688	0.728225719195	0.6596933507525707	0.0
