7 

N	-1.433249929155	0.216473294252	-0.631437569340	0.9281140090707749	0.0
H	-0.604654189155	-0.368380235748	-0.681779659340	0.6951785918202347	0.0
H	-2.095077489155	-0.173186275748	-1.289674529340	0.6953079023370073	0.0
C	-1.993267369155	0.136955504252	0.715940550660	0.8087792731612778	0.0
H	-2.887346319155	0.754801634252	0.777161440660	0.6747604606862112	0.0
H	-2.257354059155	-0.870286745748	1.053446140660	0.6757350073896746	0.0
H	-1.274884089155	0.544231834252	1.425081260660	0.675634192829301	0.0
