6 

C	0.022497893191	0.666454974560	2.538768514684	0.8455990415818241	0.0
H	0.932971893191	1.225940694560	2.379653674684	0.6931958707301642	0.0
H	-0.887049606809	1.228859204560	2.695729014684	0.6930881353556605	0.0
C	0.022830573191	-0.666232325440	2.538900754684	0.8455977485378883	0.0
H	0.933566273191	-1.225314805440	2.379890314684	0.6931158111621469	0.0
H	-0.886457516809	-1.229057095440	2.695989904684	0.6930371948662271	0.0
