9 

C	-0.43970	1.63640	0.39440	0.8016576427965499	0.0
C	-0.20350	2.81130	-0.55390	0.8775639438744238	0.0
O	-1.12560	3.35540	-1.14910	1.0397022985350135	0.0
N	1.04850	3.24830	-0.67140	0.8655072274357478	0.0
H	-1.42250	1.80430	0.83480	0.6750690091274455	0.0
H	0.32380	1.72190	1.16770	0.6676750042240684	0.0
H	1.25770	4.02250	-1.28550	0.6707712800305733	0.0
H	1.78920	2.80580	-0.14640	0.6522842462637822	0.0
H	-0.38590	0.67940	-0.12440	0.6517726956991463	0.0
