8 

C	-0.43290	1.63080	0.43590	0.7980798606931494	0.0
C	-0.17710	2.82180	-0.49110	0.8607508660200717	0.0
O	-1.17420	3.34020	-1.04440	1.036504318664729	0.0
O	1.01190	3.16320	-0.65960	0.8810122645569262	0.0
H	-1.41330	1.80030	0.88110	0.6709494309542822	0.0
H	0.33150	1.68250	1.21120	0.6661243889308004	0.0
H	1.04810	3.91500	-1.25560	0.6505417626654454	0.0
H	-0.39450	0.68490	-0.10440	0.6435695536316814	0.0
