14
S66-10,7 
 N    1.604284920845   -0.709964225748   -0.478961529340
 H    1.900553590845   -0.435426495748   -1.406946769340
 H    2.227834590845   -1.457654545748   -0.203766669340
 C    1.764514900845    0.425246364252    0.434713770660
 H    1.494324600845    0.110550584252    1.440366880660
 H    2.771925210845    0.847022924252    0.471685510660
 H    1.071974520845    1.211021844252    0.142056530660
 N   -1.433249929155    0.216473294252   -0.631437569340
 H   -0.604654189155   -0.368380235748   -0.681779659340
 H   -2.095077489155   -0.173186275748   -1.289674529340
 C   -1.993267369155    0.136955504252    0.715940550660
 H   -2.887346319155    0.754801634252    0.777161440660
 H   -2.257354059155   -0.870286745748    1.053446140660
 H   -1.274884089155    0.544231834252    1.425081260660
