12
0 1 
 C    0.216304044554    1.863191092997   -0.413009082215
 H    0.340922514554    2.274367822997   -1.412053412215
 H    0.722875414554    2.504183642997    0.304775437785
 H   -0.850107715446    1.836661562997   -0.194587652215
 C    0.728295734554    0.445393412997   -0.410715052215
 O    0.268315844554   -0.420343007003   -1.149889662215
 N    1.714778704554    0.172361062997    0.481615657785
 H    2.114539724554    0.927293842997    1.006968407785
 C    2.303224044554   -1.147229477003    0.559115227785
 H    1.515047424554   -1.888559627003    0.466094627785
 H    3.024483824554   -1.319224857003   -0.239429162215
 H    2.797877554554   -1.263097667003    1.519054757785
