7
0 1 
 N    1.604284920845   -0.709964225748   -0.478961529340
 H    1.900553590845   -0.435426495748   -1.406946769340
 H    2.227834590845   -1.457654545748   -0.203766669340
 C    1.764514900845    0.425246364252    0.434713770660
 H    1.494324600845    0.110550584252    1.440366880660
 H    2.771925210845    0.847022924252    0.471685510660
 H    1.071974520845    1.211021844252    0.142056530660
