18

C	1.06350	-0.64270	0.37360
N	0.51390	0.74050	0.43590
C	-0.79950	1.15000	0.49020
N	-0.94750	2.43780	0.53700
C	0.35160	2.92630	0.51130
C	0.87380	4.22860	0.53660
N	0.11210	5.33080	0.59600
N	2.21240	4.36050	0.49770
C	2.96380	3.26270	0.43880
N	2.59120	2.00130	0.41010
C	1.24710	1.89810	0.44920
H	0.52470	6.20110	0.61090
H	-0.83630	5.25310	0.62370
H	2.09080	-0.54780	0.72530
H	-1.59370	0.41810	0.49090
H	4.04010	3.34600	0.40750
H	1.06620	-0.98390	-0.66160
H	0.50580	-1.28390	1.05620
